gem5 Simulator System.  https://www.gem5.org
gem5 is copyrighted software; use the --copyright option for details.

gem5 version 23.0.0.1
gem5 compiled Aug 10 2025 20:19:18
gem5 started Aug 11 2025 00:23:20
gem5 executing on ubuntu, pid 515954
command line: ../gem5/build/X86/gem5.opt --outdir=results_20250811_002313/Balanced_Center_1threads/gem5_output configs/minor_cpu_floatsimd_config.py --num-cpus=1 --float-simd-op-lat=3 --float-simd-issue-lat=4 --caches --l2cache --cmd=src/multi_threaded_daxpy '--options=10000 1 2.5'

