gem5 Simulator System.  https://www.gem5.org
gem5 is copyrighted software; use the --copyright option for details.

gem5 version 23.0.0.1
gem5 compiled Aug 10 2025 20:19:18
gem5 started Aug 10 2025 21:49:58
gem5 executing on ubuntu, pid 511317
command line: /home/vboxuser/gem5/build/X86/gem5.opt --outdir=/home/vboxuser/gem5_assignment/outputs/sim_3_4_t1 --stats-file=/home/vboxuser/gem5_assignment/outputs/sim_3_4_t1/stats.txt /home/vboxuser/gem5_assignment/configs/daxpy_gem5_config.py --cores=1 --op-lat=3 --issue-lat=4 /home/vboxuser/gem5_assignment/src/daxpy_benchmark --vector-size=50000 --threads=1

